MOL_0
     RDKit          3D

 19 19  0  0  0  0  0  0  0  0999 V2000
    3.3985   -0.7816    0.1060 O   0  0  0  0  0  0  0  0  0  0  0  0
    2.3064   -1.3969    0.2445 C   0  0  0  0  0  0  0  0  0  0  0  0
    2.3642   -2.7571    0.4926 O   0  0  0  0  0  1  0  0  0  0  0  0
    1.0328   -0.7358    0.1531 C   0  0  0  0  0  0  0  0  0  0  0  0
   -0.1229   -1.4673    0.3150 C   0  0  0  0  0  0  0  0  0  0  0  0
   -1.3160   -0.7905    0.2189 C   0  0  0  0  0  0  0  0  0  0  0  0
   -2.5292   -1.5010    0.3783 N   0  0  0  0  0  4  0  0  0  0  0  0
   -2.4800   -2.7264    0.6031 O   0  0  0  0  0  0  0  0  0  0  0  0
   -3.7544   -0.8436    0.2858 O   0  0  0  0  0  1  0  0  0  0  0  0
   -1.3781    0.5647   -0.0287 C   0  0  0  0  0  0  0  0  0  0  0  0
   -0.2096    1.2721   -0.1865 C   0  0  0  0  0  0  0  0  0  0  0  0
   -0.2991    2.6641   -0.4402 N   0  0  0  0  0  4  0  0  0  0  0  0
   -1.2972    3.1262   -1.0002 O   0  0  0  0  0  0  0  0  0  0  0  0
    0.7645    3.4408   -0.0342 O   0  0  0  0  0  1  0  0  0  0  0  0
    1.0195    0.6317   -0.0979 C   0  0  0  0  0  0  0  0  0  0  0  0
    2.1806    1.3680   -0.2609 O   0  0  0  0  0  0  0  0  0  0  0  0
   -0.0595   -2.5352    0.5100 H   0  0  0  0  0  0  0  0  0  0  0  0
   -2.3111    1.1040   -0.1060 H   0  0  0  0  0  0  0  0  0  0  0  0
    2.6906    1.3637   -1.1527 H   0  0  0  0  0  0  0  0  0  0  0  0
  1  2  2  0
  2  3  1  0
  2  4  1  0
  4  5  2  0
  5  6  1  0
  6  7  1  0
  7  8  2  0
  7  9  1  0
  6 10  2  0
 10 11  1  0
 11 12  1  0
 12 13  2  0
 12 14  1  0
 11 15  2  0
 15 16  1  0
 15  4  1  0
  5 17  1  0
 10 18  1  0
 16 19  1  0
M  CHG  5   3  -1   7   1   9  -1  12   1  14  -1
M  END
$$$$
MOL_1
     RDKit          3D

 19 19  0  0  0  0  0  0  0  0999 V2000
    3.1490   -1.2965   -0.4373 O   0  0  0  0  0  0  0  0  0  0  0  0
    2.5638   -0.1856   -0.4015 C   0  0  0  0  0  0  0  0  0  0  0  0
    3.3651    0.9394   -0.5700 O   0  0  0  0  0  0  0  0  0  0  0  0
    1.1212   -0.0924   -0.1937 C   0  0  0  0  0  0  0  0  0  0  0  0
    0.4517    1.1047   -0.1494 C   0  0  0  0  0  0  0  0  0  0  0  0
   -0.9186    1.1857    0.0480 C   0  0  0  0  0  0  0  0  0  0  0  0
   -1.6042    2.4292    0.0925 N   0  0  0  0  0  4  0  0  0  0  0  0
   -2.8122    2.4915    0.2674 O   0  0  0  0  0  0  0  0  0  0  0  0
   -0.8745    3.5764   -0.0660 O   0  0  0  0  0  1  0  0  0  0  0  0
   -1.6505    0.0321    0.2072 C   0  0  0  0  0  0  0  0  0  0  0  0
   -0.9932   -1.1961    0.1660 C   0  0  0  0  0  0  0  0  0  0  0  0
   -1.7305   -2.3964    0.3285 N   0  0  0  0  0  4  0  0  0  0  0  0
   -2.9258   -2.4214    0.0042 O   0  0  0  0  0  0  0  0  0  0  0  0
   -1.1497   -3.5284    0.8373 O   0  0  0  0  0  1  0  0  0  0  0  0
    0.3884   -1.2474   -0.0342 C   0  0  0  0  0  0  0  0  0  0  0  0
    1.0467   -2.4543   -0.0766 O   0  0  0  0  0  1  0  0  0  0  0  0
    4.2896    1.0122   -0.1160 H   0  0  0  0  0  0  0  0  0  0  0  0
    1.0163    1.9999   -0.2717 H   0  0  0  0  0  0  0  0  0  0  0  0
   -2.7326    0.0475    0.3653 H   0  0  0  0  0  0  0  0  0  0  0  0
  1  2  2  0
  2  3  1  0
  2  4  1  0
  4  5  2  0
  5  6  1  0
  6  7  1  0
  7  8  2  0
  7  9  1  0
  6 10  2  0
 10 11  1  0
 11 12  1  0
 12 13  2  0
 12 14  1  0
 11 15  2  0
 15 16  1  0
 15  4  1  0
  3 17  1  0
  5 18  1  0
 10 19  1  0
M  CHG  5   7   1   9  -1  12   1  14  -1  16  -1
M  END
$$$$
MOL_2
     RDKit          3D

  6  5  0  0  0  0  0  0  0  0999 V2000
   -1.2708   -0.4880   -1.1312 O   0  0  0  0  0  0  0  0  0  0  0  0
   -0.4192   -0.0335    0.0132 S   0  0  0  0  0  6  0  0  0  0  0  0
   -0.8407   -0.6417    1.3125 O   0  0  0  0  0  0  0  0  0  0  0  0
   -0.3888    1.6446    0.0764 O   0  0  0  0  0  1  0  0  0  0  0  0
    1.1464   -0.5898   -0.2860 O   0  0  0  0  0  0  0  0  0  0  0  0
    1.7731    0.1085    0.0151 H   0  0  0  0  0  0  0  0  0  0  0  0
  1  2  2  0
  2  3  2  0
  2  4  1  0
  2  5  1  0
  5  6  1  0
M  CHG  1   4  -1
M  END
$$$$
MOL_3
     RDKit          3D

 11 10  0  0  0  0  0  0  0  0999 V2000
   -1.3223   -0.0887   -0.3487 C   0  0  0  0  0  0  0  0  0  0  0  0
   -0.2223    0.0606    0.6375 C   0  0  0  0  0  0  0  0  0  0  0  0
    1.4279   -0.0152   -0.0929 P   0  0  0  0  0  5  0  0  0  0  0  0
    1.4449   -1.0915   -1.1307 O   0  0  0  0  0  0  0  0  0  0  0  0
    1.8588    1.4796   -0.7595 O   0  0  0  0  0  1  0  0  0  0  0  0
   -1.8080   -1.0766   -0.2199 H   0  0  0  0  0  0  0  0  0  0  0  0
   -1.0173   -0.0183   -1.4045 H   0  0  0  0  0  0  0  0  0  0  0  0
   -2.1066    0.7049   -0.2081 H   0  0  0  0  0  0  0  0  0  0  0  0
   -0.2830   -0.7364    1.4152 H   0  0  0  0  0  0  0  0  0  0  0  0
   -0.3067    1.0586    1.1385 H   0  0  0  0  0  0  0  0  0  0  0  0
    2.3347   -0.2770    0.9729 H   0  0  0  0  0  0  0  0  0  0  0  0
  1  2  1  0
  2  3  1  0
  3  4  2  0
  3  5  1  0
  1  6  1  0
  1  7  1  0
  1  8  1  0
  2  9  1  0
  2 10  1  0
  3 11  1  0
M  CHG  1   5  -1
M  END
$$$$
MOL_4
     RDKit          3D

  5  4  0  0  0  0  0  0  0  0999 V2000
   -0.2351   -0.9867   -1.1352 O   0  0  0  0  0  0  0  0  0  0  0  0
    0.0112   -0.0431    0.0078 S   0  0  0  0  0  6  0  0  0  0  0  0
    0.0609   -0.8024    1.2964 O   0  0  0  0  0  0  0  0  0  0  0  0
   -1.2825    1.0336    0.0379 O   0  0  0  0  0  1  0  0  0  0  0  0
    1.4454    0.7985   -0.2069 F   0  0  0  0  0  0  0  0  0  0  0  0
  1  2  2  0
  2  3  2  0
  2  4  1  0
  2  5  1  0
M  CHG  1   4  -1
M  END
$$$$